Version 4
SHEET 1 1416 1648
WIRE -448 288 -512 288
WIRE -400 288 -448 288
WIRE -400 304 -400 288
WIRE 32 336 0 336
WIRE 176 336 144 336
WIRE 320 336 288 336
WIRE -512 368 -512 288
WIRE 0 368 0 336
WIRE 144 368 144 336
WIRE 288 368 288 336
WIRE -848 384 -928 384
WIRE -544 384 -848 384
WIRE -400 400 -400 384
WIRE -400 400 -480 400
WIRE -320 400 -400 400
WIRE -256 400 -320 400
WIRE -704 416 -736 416
WIRE -672 416 -704 416
WIRE -592 416 -672 416
WIRE -544 416 -592 416
WIRE -928 432 -928 384
WIRE -256 432 -272 432
WIRE -736 448 -736 416
WIRE -672 448 -672 416
WIRE -592 448 -592 416
WIRE -512 448 -512 432
WIRE -480 448 -480 416
WIRE -480 448 -512 448
WIRE -512 464 -512 448
WIRE -256 464 -272 464
WIRE 0 480 0 448
WIRE 144 480 144 448
WIRE 288 480 288 448
WIRE -352 496 -400 496
WIRE -256 496 -352 496
WIRE -352 512 -352 496
WIRE -528 528 -544 528
WIRE -400 528 -400 496
WIRE -400 528 -416 528
WIRE -928 544 -928 512
WIRE -736 560 -736 528
WIRE -672 560 -672 512
WIRE -672 560 -736 560
WIRE -592 560 -592 544
WIRE -592 560 -672 560
WIRE -736 576 -736 560
WIRE -352 608 -352 592
WIRE -256 624 -272 624
WIRE 32 624 -32 624
WIRE 96 624 32 624
WIRE 240 624 176 624
WIRE -736 656 -768 656
WIRE -272 656 -272 624
WIRE -256 656 -272 656
WIRE 48 656 -32 656
WIRE 96 656 48 656
WIRE 240 656 176 656
WIRE -768 688 -768 656
WIRE -272 688 -272 656
WIRE -256 688 -272 688
WIRE 64 688 -32 688
WIRE 96 688 64 688
WIRE 240 688 176 688
WIRE -272 720 -272 688
WIRE -256 720 -272 720
WIRE 80 720 -32 720
WIRE 96 720 80 720
WIRE 240 720 176 720
WIRE -272 736 -272 720
WIRE 96 752 0 752
WIRE 240 752 176 752
WIRE -768 800 -768 768
WIRE 208 832 208 816
WIRE 80 880 80 720
WIRE 112 880 80 880
WIRE 64 912 64 688
WIRE 112 912 64 912
WIRE 368 928 352 928
WIRE 384 928 368 928
WIRE 48 944 48 656
WIRE 112 944 48 944
WIRE 32 976 32 624
WIRE 112 976 32 976
FLAG -768 800 0
FLAG 144 480 0
FLAG 176 336 LOW
IOPIN 176 336 Out
FLAG -736 656 clk
IOPIN -736 656 Out
FLAG -272 464 clk
IOPIN -272 464 In
FLAG -272 736 0
FLAG 240 624 q0
FLAG 240 656 q1
FLAG 240 688 q2
FLAG 240 720 q3
FLAG 240 752 _qen
FLAG 288 480 0
FLAG 320 336 VCC
FLAG 0 480 0
FLAG 32 336 HIGH
IOPIN 32 336 Out
FLAG -272 432 LOW
IOPIN -272 432 In
FLAG -352 608 0
FLAG -512 464 0
FLAG -320 400 _en
FLAG -448 288 VCC
FLAG -736 576 0
FLAG -928 544 0
FLAG -848 384 VE
FLAG -704 416 VC
FLAG 0 752 _en
FLAG -400 496 reset
FLAG 368 928 N
FLAG 208 816 VCC
SYMBOL voltage -768 672 R0
WINDOW 123 0 0 Left 2
WINDOW 39 0 0 Left 2
SYMATTR InstName V1
SYMATTR Value PULSE(0 5 0 1p 1p {0.5*Tclk} {Tclk})
SYMBOL voltage 144 352 R0
SYMATTR InstName V2
SYMATTR Value 0
SYMBOL dview5 112 768 R0
SYMATTR InstName U3
SYMBOL 74hc191.i -144 304 R0
SYMATTR InstName U4
SYMBOL voltage 288 352 R0
WINDOW 123 0 0 Left 2
WINDOW 39 0 0 Left 2
SYMATTR InstName V6
SYMATTR Value 5V
SYMBOL voltage 0 352 R0
WINDOW 123 0 0 Left 2
WINDOW 39 0 0 Left 2
SYMATTR InstName V5
SYMATTR Value 5V
SYMBOL voltage -352 496 R0
WINDOW 123 0 0 Left 2
WINDOW 39 0 0 Left 2
SYMATTR InstName V4
SYMATTR Value PULSE(5 0 20n 1n 1n 500n 2m)
SYMBOL voltage -928 416 R0
WINDOW 123 0 0 Left 2
WINDOW 39 0 0 Left 2
SYMATTR InstName V7
SYMATTR Value 4.9
SYMBOL xcomp_x11 -512 336 R0
SYMATTR InstName U1
SYMATTR Value LM311
SYMBOL res -416 288 R0
SYMATTR InstName R1
SYMATTR Value 2.2k
SYMBOL current -736 528 R180
WINDOW 0 24 88 Left 2
WINDOW 3 24 0 Left 2
WINDOW 123 0 0 Left 2
WINDOW 39 0 0 Left 2
SYMATTR InstName I1
SYMATTR Value 0
SYMBOL cap -688 448 R0
SYMATTR InstName C1
SYMATTR Value 10nF
SYMBOL 74hc04 -464 464 M0
SYMATTR InstName U5
SYMBOL dac4 208 928 R0
SYMATTR InstName U6
SYMBOL nmos -544 448 M0
SYMATTR InstName M1
SYMATTR Value 2N7002
TEXT -488 840 Left 2 !.param Fclk=10k\n.param Tclk=1/Fclk
TEXT -816 848 Left 2 !.tran 0 5m 1n uic
TEXT -816 872 Left 2 !.options plotwinsize=0
TEXT -224 832 Left 2 !.lib 74hc.lib
TEXT -224 864 Left 2 !.lib dview.lib
TEXT -224 896 Left 2 !.lib LM311.301
TEXT -224 928 Left 2 !.lib codec.lib
