Version 4
SHEET 1 1416 1648
WIRE 608 656 528 656
WIRE 528 688 528 656
WIRE -64 720 -96 720
WIRE 80 720 48 720
WIRE 224 720 192 720
WIRE -96 752 -96 720
WIRE 48 752 48 720
WIRE 192 752 192 720
WIRE 528 800 528 768
WIRE 608 800 528 800
WIRE 528 832 528 800
WIRE 608 832 608 800
WIRE -96 864 -96 832
WIRE 48 864 48 832
WIRE 192 864 192 832
WIRE 528 944 528 912
WIRE 608 944 528 944
WIRE 304 976 272 976
WIRE 384 976 368 976
WIRE 384 1040 384 976
WIRE 16 1056 16 1024
WIRE 48 1056 48 1024
WIRE 80 1056 80 1024
WIRE 112 1056 112 1024
WIRE 576 1072 576 1056
WIRE 336 1088 336 1072
WIRE 512 1088 512 1056
WIRE 544 1088 512 1088
WIRE 272 1104 272 976
WIRE 272 1104 224 1104
WIRE 304 1104 272 1104
WIRE 656 1104 608 1104
WIRE -64 1120 -128 1120
WIRE 384 1120 384 1040
WIRE 384 1120 368 1120
WIRE 400 1120 384 1120
WIRE 512 1120 480 1120
WIRE 544 1120 512 1120
WIRE 272 1136 224 1136
WIRE 304 1136 272 1136
WIRE 272 1152 272 1136
WIRE 576 1152 576 1136
WIRE 336 1168 336 1152
WIRE 512 1232 512 1120
WIRE 544 1232 512 1232
WIRE 656 1232 656 1104
WIRE 656 1232 624 1232
WIRE -128 1280 -128 1120
WIRE 656 1280 656 1232
WIRE 656 1280 -128 1280
FLAG 48 864 0
FLAG 80 720 LOW
IOPIN 80 720 Out
FLAG 192 864 0
FLAG 224 720 VCC
FLAG -96 864 0
FLAG -64 720 HIGH
IOPIN -64 720 Out
FLAG 272 1152 0
FLAG 512 1056 0
FLAG 336 1072 +15V
FLAG 576 1056 +15V
FLAG 576 1152 -15V
FLAG 336 1168 -15V
FLAG 608 656 +15V
FLAG 608 944 -15V
FLAG 608 832 0
FLAG 16 1024 LOW
IOPIN 16 1024 In
FLAG 48 1024 HIGH
IOPIN 48 1024 In
FLAG 80 1024 HIGH
IOPIN 80 1024 In
FLAG 112 1024 HIGH
IOPIN 112 1024 In
FLAG 384 1040 V1
FLAG 656 1104 V2
SYMBOL voltage 48 736 R0
SYMATTR InstName V2
SYMATTR Value 0
SYMBOL voltage 192 736 R0
WINDOW 123 0 0 Left 0
WINDOW 39 0 0 Left 0
SYMATTR InstName V6
SYMATTR Value 5V
SYMBOL voltage -96 736 R0
WINDOW 123 0 0 Left 0
WINDOW 39 0 0 Left 0
SYMATTR InstName V5
SYMATTR Value 5V
SYMBOL dac4_R2R 64 1120 R0
SYMATTR InstName X1
SYMBOL TL081 336 1056 R0
SYMATTR InstName U6
SYMBOL TL081 576 1040 R0
SYMATTR InstName U8
SYMBOL voltage 528 672 R0
WINDOW 123 0 0 Left 0
WINDOW 39 0 0 Left 0
SYMATTR InstName V3
SYMATTR Value 15V
SYMBOL voltage 528 816 R0
WINDOW 123 0 0 Left 0
WINDOW 39 0 0 Left 0
SYMATTR InstName V8
SYMATTR Value 15V
SYMBOL cap 368 960 R90
WINDOW 0 0 32 VBottom 0
WINDOW 3 32 32 VTop 0
SYMATTR InstName C2
SYMATTR Value 6.25nF
SYMBOL res 496 1104 R90
WINDOW 0 0 56 VBottom 0
WINDOW 3 32 56 VTop 0
SYMATTR InstName R4
SYMATTR Value 100k
SYMBOL res 640 1216 R90
WINDOW 0 0 56 VBottom 0
WINDOW 3 32 56 VTop 0
SYMATTR InstName R5
SYMATTR Value 300k
TEXT -96 656 Left 0 !.tran 0 5m 1n uic
TEXT -96 680 Left 0 !.options plotwinsize=0
